packages/topology_optimizer_pkg/optimizer_tests/data/complex_grid/initial_topology/original_gridfile/grid.xiidm
<?xml version="1.0" encoding="UTF-8"?>
<iidm:network xmlns:iidm="http://www.powsybl.org/schema/iidm/1_14" xmlns:cp="http://www.powsybl.org/schema/iidm/ext/connectable_position/1_1" xmlns:bbsp="http://www.itesla_project.eu/schema/iidm/ext/busbarsectionposition/1_0" xmlns:reft="http://www.powsybl.org/schema/iidm/ext/reference_terminals/1_0" xmlns:slt="http://www.powsybl.org/schema/iidm/ext/slack_terminal/1_5" id="TESTGRID_NODE_BREAKER_HVDC_BAT_SVC_3W_TRAFO" caseDate="2025-11-19T07:57:59.216Z" forecastDistance="0" sourceFormat="" minimumValidationLevel="STEADY_STATE_HYPOTHESIS">
    <iidm:substation id="S_3W" name="S_3W" country="BE" tso="TSO">
        <iidm:voltageLevel id="VL_3W_HV" name="VL_3W_HV" nominalV="380.0" topologyKind="NODE_BREAKER">
            <iidm:nodeBreakerTopology>
                <iidm:busbarSection id="VL_3W_HV_1_1" node="0"/>
                <iidm:busbarSection id="VL_3W_HV_2_1" node="1"/>
                <iidm:busbarSection id="VL_3W_HV_1_2" node="2"/>
                <iidm:busbarSection id="VL_3W_HV_2_2" node="3"/>
                <iidm:switch id="VL_3W_HV_DISCONNECTOR_0_4" kind="DISCONNECTOR" retained="false" open="false" node1="0" node2="4"/>
                <iidm:switch id="VL_3W_HV_BREAKER_1_1" kind="BREAKER" retained="true" open="false" node1="4" node2="5"/>
                <iidm:switch id="VL_3W_HV_DISCONNECTOR_5_2" kind="DISCONNECTOR" retained="false" open="false" node1="5" node2="2"/>
                <iidm:switch id="VL_3W_HV_DISCONNECTOR_1_6" kind="DISCONNECTOR" retained="false" open="false" node1="1" node2="6"/>
                <iidm:switch id="VL_3W_HV_BREAKER_2_1" kind="BREAKER" retained="true" open="false" node1="6" node2="7"/>
                <iidm:switch id="VL_3W_HV_DISCONNECTOR_7_3" kind="DISCONNECTOR" retained="false" open="false" node1="7" node2="3"/>
                <iidm:switch id="VL_3W_HV_BREAKER" kind="BREAKER" retained="true" open="false" node1="8" node2="9"/>
                <iidm:switch id="VL_3W_HV_DISCONNECTOR_8_0" kind="DISCONNECTOR" retained="false" open="false" node1="8" node2="0"/>
                <iidm:switch id="VL_3W_HV_DISCONNECTOR_9_1" kind="DISCONNECTOR" retained="false" open="false" node1="9" node2="1"/>
                <iidm:switch id="L141_BREAKER" kind="BREAKER" retained="true" open="false" node1="10" node2="11"/>
                <iidm:switch id="L141_DISCONNECTOR_11_0" kind="DISCONNECTOR" retained="false" open="false" node1="11" node2="0"/>
                <iidm:switch id="L141_DISCONNECTOR_11_1" kind="DISCONNECTOR" retained="false" open="true" node1="11" node2="1"/>
                <iidm:switch id="L151_BREAKER" kind="BREAKER" retained="true" open="false" node1="12" node2="13"/>
                <iidm:switch id="L151_DISCONNECTOR_13_0" kind="DISCONNECTOR" retained="false" open="true" node1="13" node2="0"/>
                <iidm:switch id="L151_DISCONNECTOR_13_1" kind="DISCONNECTOR" retained="false" open="false" node1="13" node2="1"/>
                <iidm:switch id="L181_BREAKER" kind="BREAKER" retained="true" open="false" node1="14" node2="15"/>
                <iidm:switch id="L181_DISCONNECTOR_15_0" kind="DISCONNECTOR" retained="false" open="false" node1="15" node2="0"/>
                <iidm:switch id="L181_DISCONNECTOR_15_1" kind="DISCONNECTOR" retained="false" open="true" node1="15" node2="1"/>
                <iidm:switch id="L191_BREAKER" kind="BREAKER" retained="true" open="false" node1="16" node2="17"/>
                <iidm:switch id="L191_DISCONNECTOR_17_0" kind="DISCONNECTOR" retained="false" open="true" node1="17" node2="0"/>
                <iidm:switch id="L191_DISCONNECTOR_17_1" kind="DISCONNECTOR" retained="false" open="false" node1="17" node2="1"/>
                <iidm:switch id="2W_3W_MV_HV1_BREAKER" kind="BREAKER" retained="true" open="false" node1="18" node2="19"/>
                <iidm:switch id="2W_3W_MV_HV1_DISCONNECTOR_19_0" kind="DISCONNECTOR" retained="false" open="false" node1="19" node2="0"/>
                <iidm:switch id="2W_3W_MV_HV1_DISCONNECTOR_19_1" kind="DISCONNECTOR" retained="false" open="true" node1="19" node2="1"/>
                <iidm:switch id="BREAKER_3W_HV" kind="BREAKER" retained="false" open="false" node1="30" node2="31"/>
                <iidm:switch id="DISCONNECTOR_3W_HV_1" kind="DISCONNECTOR" retained="false" open="false" node1="0" node2="31"/>
                <iidm:switch id="DISCONNECTOR_3W_HV_2" kind="DISCONNECTOR" retained="false" open="false" node1="1" node2="31"/>
                <iidm:switch id="LCC1_BREAKER" kind="BREAKER" retained="true" open="false" node1="32" node2="33"/>
                <iidm:switch id="LCC1_DISCONNECTOR_33_0" kind="DISCONNECTOR" retained="false" open="false" node1="33" node2="0"/>
                <iidm:switch id="LCC1_DISCONNECTOR_33_1" kind="DISCONNECTOR" retained="false" open="true" node1="33" node2="1"/>
                <iidm:switch id="Dangling_outbound_BREAKER" kind="BREAKER" retained="true" open="false" node1="34" node2="35"/>
                <iidm:switch id="Dangling_outbound_DISCONNECTOR_35_0" kind="DISCONNECTOR" retained="false" open="false" node1="35" node2="0"/>
                <iidm:switch id="Dangling_outbound_DISCONNECTOR_35_1" kind="DISCONNECTOR" retained="false" open="true" node1="35" node2="1"/>
                <iidm:bus angle="-1.7603765823301103" nodes="0,1,2,3,4,5,6,7,8,9,10,11,12,13,14,15,16,17,18,19,30,31,32,33,34,35"/>
            </iidm:nodeBreakerTopology>
            <iidm:danglingLine id="Dangling_outbound" name="Dangling outbound" p0="300.0" q0="100.0" r="1.0" x="15.0" g="0.0" b="1.108E-6" node="34" p="299.99999999999994">
                <iidm:property name="angle" value="-3.54590987740539"/>
            </iidm:danglingLine>
            <iidm:lccConverterStation id="LCC1" name="LCC station A" lossFactor="1.0" powerFactor="0.98" node="32" p="75.0" q="15.229392062552188"/>
        </iidm:voltageLevel>
        <iidm:voltageLevel id="VL_3W_MV" name="VL_3W_MV" nominalV="110.0" topologyKind="NODE_BREAKER">
            <iidm:nodeBreakerTopology>
                <iidm:busbarSection id="VL_3W_MV_1_1" node="0"/>
                <iidm:busbarSection id="VL_3W_MV_2_1" node="1"/>
                <iidm:switch id="VL_3W_MV_BREAKER" kind="BREAKER" retained="true" open="false" node1="2" node2="3"/>
                <iidm:switch id="VL_3W_MV_DISCONNECTOR_2_0" kind="DISCONNECTOR" retained="false" open="false" node1="2" node2="0"/>
                <iidm:switch id="VL_3W_MV_DISCONNECTOR_3_1" kind="DISCONNECTOR" retained="false" open="false" node1="3" node2="1"/>
                <iidm:switch id="L32_BREAKER" kind="BREAKER" retained="true" open="false" node1="4" node2="5"/>
                <iidm:switch id="L32_DISCONNECTOR_5_0" kind="DISCONNECTOR" retained="false" open="false" node1="5" node2="0"/>
                <iidm:switch id="L32_DISCONNECTOR_5_1" kind="DISCONNECTOR" retained="false" open="true" node1="5" node2="1"/>
                <iidm:switch id="L52_BREAKER" kind="BREAKER" retained="true" open="false" node1="6" node2="7"/>
                <iidm:switch id="L52_DISCONNECTOR_7_0" kind="DISCONNECTOR" retained="false" open="false" node1="7" node2="0"/>
                <iidm:switch id="L52_DISCONNECTOR_7_1" kind="DISCONNECTOR" retained="false" open="true" node1="7" node2="1"/>
                <iidm:switch id="L92_BREAKER" kind="BREAKER" retained="true" open="false" node1="8" node2="9"/>
                <iidm:switch id="L92_DISCONNECTOR_9_0" kind="DISCONNECTOR" retained="false" open="false" node1="9" node2="0"/>
                <iidm:switch id="L92_DISCONNECTOR_9_1" kind="DISCONNECTOR" retained="false" open="true" node1="9" node2="1"/>
                <iidm:switch id="L102_BREAKER" kind="BREAKER" retained="true" open="false" node1="10" node2="11"/>
                <iidm:switch id="L102_DISCONNECTOR_11_0" kind="DISCONNECTOR" retained="false" open="false" node1="11" node2="0"/>
                <iidm:switch id="L102_DISCONNECTOR_11_1" kind="DISCONNECTOR" retained="false" open="true" node1="11" node2="1"/>
                <iidm:switch id="2W_3W_MV_HV2_BREAKER" kind="BREAKER" retained="true" open="false" node1="12" node2="13"/>
                <iidm:switch id="2W_3W_MV_HV2_DISCONNECTOR_13_0" kind="DISCONNECTOR" retained="false" open="false" node1="13" node2="0"/>
                <iidm:switch id="2W_3W_MV_HV2_DISCONNECTOR_13_1" kind="DISCONNECTOR" retained="false" open="true" node1="13" node2="1"/>
                <iidm:switch id="BREAKER_3W_MV" kind="BREAKER" retained="false" open="false" node1="30" node2="31"/>
                <iidm:switch id="DISCONNECTOR_3W_MV_1" kind="DISCONNECTOR" retained="false" open="false" node1="0" node2="31"/>
                <iidm:switch id="DISCONNECTOR_3W_MV_2" kind="DISCONNECTOR" retained="false" open="false" node1="1" node2="31"/>
                <iidm:bus angle="-1.7792175966992991" nodes="0,1,2,3,4,5,6,7,8,9,10,11,12,13,30,31"/>
            </iidm:nodeBreakerTopology>
        </iidm:voltageLevel>
        <iidm:voltageLevel id="VL_3W_LV" name="VL_3W_LV" nominalV="63.0" topologyKind="NODE_BREAKER">
            <iidm:nodeBreakerTopology>
                <iidm:busbarSection id="VL_3W_LV_1_1" node="0"/>
                <iidm:busbarSection id="VL_3W_LV_1_2" node="1"/>
                <iidm:switch id="VL_3W_LV_DISCONNECTOR_0_2" kind="DISCONNECTOR" retained="false" open="false" node1="0" node2="2"/>
                <iidm:switch id="VL_3W_LV_BREAKER_1_1" kind="BREAKER" retained="true" open="false" node1="2" node2="3"/>
                <iidm:switch id="VL_3W_LV_DISCONNECTOR_3_1" kind="DISCONNECTOR" retained="false" open="false" node1="3" node2="1"/>
                <iidm:switch id="L11_BREAKER" kind="BREAKER" retained="true" open="false" node1="4" node2="5"/>
                <iidm:switch id="L11_DISCONNECTOR_5_0" kind="DISCONNECTOR" retained="false" open="false" node1="5" node2="0"/>
                <iidm:switch id="BREAKER_3W_LV" kind="BREAKER" retained="false" open="false" node1="30" node2="31"/>
                <iidm:switch id="DISCONNECTOR_3W_LV_1" kind="DISCONNECTOR" retained="false" open="false" node1="0" node2="31"/>
                <iidm:switch id="load_3W_LV_BREAKER" kind="BREAKER" retained="true" open="false" node1="32" node2="33"/>
                <iidm:switch id="load_3W_LV_DISCONNECTOR_33_0" kind="DISCONNECTOR" retained="false" open="false" node1="33" node2="0"/>
                <iidm:bus angle="-1.7758550595710232" nodes="0,1,2,3,4,5,30,31,32,33"/>
            </iidm:nodeBreakerTopology>
            <iidm:load id="load_3W_LV" name="LV local load 2" loadType="UNDEFINED" p0="25.0" q0="8.0" node="32" p="25.0" q="8.0"/>
        </iidm:voltageLevel>
        <iidm:twoWindingsTransformer id="2W_3W_MV_HV" r="0.004" x="0.12" g="0.0" b="0.0" ratedU1="380.0" ratedU2="110.0" voltageLevelId1="VL_3W_HV" node1="18" voltageLevelId2="VL_3W_MV" node2="12" p1="33.157804961755794" p2="-33.157804961755794" selectedOperationalLimitsGroupId1="DEFAULT">
            <iidm:operationalLimitsGroup1 id="DEFAULT">
                <iidm:currentLimits permanentLimit="100.0"/>
            </iidm:operationalLimitsGroup1>
        </iidm:twoWindingsTransformer>
        <iidm:threeWindingsTransformer id="3W" name="3W 380/110/63" r1="0.005" x1="0.15" g1="0.0" b1="0.0" ratedU1="380.0" r2="0.005" x2="0.15" g2="0.0" b2="0.0" ratedU2="110.0" r3="0.006" x3="0.18" g3="0.0" b3="0.0" ratedU3="63.0" ratedU0="380.0" voltageLevelId1="VL_3W_HV" node1="30" voltageLevelId2="VL_3W_MV" node2="30" voltageLevelId3="VL_3W_LV" node3="30" p1="188.2170965012325" p2="-128.3440298774477" p3="-59.873066623786485">
            <iidm:property name="angle" value="-1.7715788454136219"/>
        </iidm:threeWindingsTransformer>
    </iidm:substation>
    <iidm:substation id="S_2W_MV_LV" name="S_2W_MV_LV" country="BE" tso="TSO">
        <iidm:voltageLevel id="VL_2W_MV_LV_MV" name="VL_2W_MV_LV_MV" nominalV="110.0" topologyKind="NODE_BREAKER">
            <iidm:nodeBreakerTopology>
                <iidm:busbarSection id="VL_2W_MV_LV_MV_1_1" node="0"/>
                <iidm:busbarSection id="VL_2W_MV_LV_MV_2_1" node="1"/>
                <iidm:switch id="VL_2W_MV_LV_MV_BREAKER" kind="BREAKER" retained="true" open="false" node1="2" node2="3"/>
                <iidm:switch id="VL_2W_MV_LV_MV_DISCONNECTOR_2_0" kind="DISCONNECTOR" retained="false" open="false" node1="2" node2="0"/>
                <iidm:switch id="VL_2W_MV_LV_MV_DISCONNECTOR_3_1" kind="DISCONNECTOR" retained="false" open="false" node1="3" node2="1"/>
                <iidm:switch id="L51_BREAKER" kind="BREAKER" retained="true" open="false" node1="4" node2="5"/>
                <iidm:switch id="L51_DISCONNECTOR_5_0" kind="DISCONNECTOR" retained="false" open="false" node1="5" node2="0"/>
                <iidm:switch id="L51_DISCONNECTOR_5_1" kind="DISCONNECTOR" retained="false" open="true" node1="5" node2="1"/>
                <iidm:switch id="L82_BREAKER" kind="BREAKER" retained="true" open="false" node1="6" node2="7"/>
                <iidm:switch id="L82_DISCONNECTOR_7_0" kind="DISCONNECTOR" retained="false" open="false" node1="7" node2="0"/>
                <iidm:switch id="L82_DISCONNECTOR_7_1" kind="DISCONNECTOR" retained="false" open="true" node1="7" node2="1"/>
                <iidm:switch id="L112_BREAKER" kind="BREAKER" retained="true" open="false" node1="8" node2="9"/>
                <iidm:switch id="L112_DISCONNECTOR_9_0" kind="DISCONNECTOR" retained="false" open="false" node1="9" node2="0"/>
                <iidm:switch id="L112_DISCONNECTOR_9_1" kind="DISCONNECTOR" retained="false" open="true" node1="9" node2="1"/>
                <iidm:switch id="2W_MV_LV1_BREAKER" kind="BREAKER" retained="true" open="false" node1="10" node2="11"/>
                <iidm:switch id="2W_MV_LV1_DISCONNECTOR_11_0" kind="DISCONNECTOR" retained="false" open="false" node1="11" node2="0"/>
                <iidm:switch id="2W_MV_LV1_DISCONNECTOR_11_1" kind="DISCONNECTOR" retained="false" open="true" node1="11" node2="1"/>
                <iidm:bus angle="-3.333292247294044" nodes="0,1,2,3,4,5,6,7,8,9,10,11"/>
            </iidm:nodeBreakerTopology>
        </iidm:voltageLevel>
        <iidm:voltageLevel id="VL_2W_MV_LV_LV" name="VL_2W_MV_LV_LV" nominalV="63.0" topologyKind="NODE_BREAKER">
            <iidm:nodeBreakerTopology>
                <iidm:busbarSection id="VL_2W_MV_LV_LV_1_1" node="0"/>
                <iidm:busbarSection id="VL_2W_MV_LV_LV_1_2" node="1"/>
                <iidm:switch id="VL_2W_MV_LV_LV_DISCONNECTOR_0_2" kind="DISCONNECTOR" retained="false" open="false" node1="0" node2="2"/>
                <iidm:switch id="VL_2W_MV_LV_LV_BREAKER_1_1" kind="BREAKER" retained="true" open="false" node1="2" node2="3"/>
                <iidm:switch id="VL_2W_MV_LV_LV_DISCONNECTOR_3_1" kind="DISCONNECTOR" retained="false" open="false" node1="3" node2="1"/>
                <iidm:switch id="L21_BREAKER" kind="BREAKER" retained="true" open="false" node1="4" node2="5"/>
                <iidm:switch id="L21_DISCONNECTOR_5_0" kind="DISCONNECTOR" retained="false" open="false" node1="5" node2="0"/>
                <iidm:switch id="2W_MV_LV2_BREAKER" kind="BREAKER" retained="true" open="false" node1="6" node2="7"/>
                <iidm:switch id="2W_MV_LV2_DISCONNECTOR_7_0" kind="DISCONNECTOR" retained="false" open="false" node1="7" node2="0"/>
                <iidm:switch id="load_2W_MV_LV_LV_BREAKER" kind="BREAKER" retained="true" open="false" node1="8" node2="9"/>
                <iidm:switch id="load_2W_MV_LV_LV_DISCONNECTOR_9_0" kind="DISCONNECTOR" retained="false" open="false" node1="9" node2="0"/>
                <iidm:bus angle="-3.42704943083482" nodes="0,1,2,3,4,5,6,7,8,9"/>
            </iidm:nodeBreakerTopology>
            <iidm:load id="load_2W_MV_LV_LV" name="LV interconnection load" loadType="UNDEFINED" p0="30.0" q0="10.0" node="8" p="30.0" q="10.0"/>
        </iidm:voltageLevel>
        <iidm:twoWindingsTransformer id="2W_MV_LV" r="0.005" x="0.15" g="0.0" b="0.0" ratedU1="110.0" ratedU2="63.0" voltageLevelId1="VL_2W_MV_LV_MV" node1="10" voltageLevelId2="VL_2W_MV_LV_LV" node2="6" p1="43.298391217846785" p2="-43.298391217846785" selectedOperationalLimitsGroupId1="DEFAULT">
            <iidm:operationalLimitsGroup1 id="DEFAULT">
                <iidm:currentLimits permanentLimit="300.0"/>
            </iidm:operationalLimitsGroup1>
        </iidm:twoWindingsTransformer>
    </iidm:substation>
    <iidm:substation id="S_LV_load" name="S_LV_load" country="BE" tso="TSO">
        <iidm:voltageLevel id="VL_LV_load" name="VL_LV_load" nominalV="63.0" topologyKind="NODE_BREAKER">
            <iidm:nodeBreakerTopology>
                <iidm:busbarSection id="VL_LV_load_1_1" node="0"/>
                <iidm:switch id="L12_BREAKER" kind="BREAKER" retained="true" open="false" node1="1" node2="2"/>
                <iidm:switch id="L12_DISCONNECTOR_2_0" kind="DISCONNECTOR" retained="false" open="false" node1="2" node2="0"/>
                <iidm:switch id="L22_BREAKER" kind="BREAKER" retained="true" open="false" node1="3" node2="4"/>
                <iidm:switch id="L22_DISCONNECTOR_4_0" kind="DISCONNECTOR" retained="false" open="false" node1="4" node2="0"/>
                <iidm:switch id="load_LV_load_BREAKER" kind="BREAKER" retained="true" open="false" node1="5" node2="6"/>
                <iidm:switch id="load_LV_load_DISCONNECTOR_6_0" kind="DISCONNECTOR" retained="false" open="false" node1="6" node2="0"/>
                <iidm:switch id="BAT_LV_BREAKER" kind="BREAKER" retained="true" open="false" node1="7" node2="8"/>
                <iidm:switch id="BAT_LV_DISCONNECTOR_8_0" kind="DISCONNECTOR" retained="false" open="false" node1="8" node2="0"/>
                <iidm:bus angle="-6.306647658712628" nodes="0,1,2,3,4,5,6,7,8"/>
            </iidm:nodeBreakerTopology>
            <iidm:battery id="BAT_LV" name="LV battery" targetP="30.0" targetQ="0.0" minP="-60.0" maxP="60.0" node="7" p="-41.82854215836752" q="-0.0">
                <iidm:minMaxReactiveLimits minQ="-1.7976931348623157E308" maxQ="1.7976931348623157E308"/>
            </iidm:battery>
            <iidm:load id="load_LV_load" name="LV local load 1" loadType="UNDEFINED" p0="90.0" q0="30.0" node="5" p="90.0" q="30.0"/>
        </iidm:voltageLevel>
    </iidm:substation>
    <iidm:substation id="S_MV_load" name="S_MV_load" country="BE" tso="TSO">
        <iidm:voltageLevel id="VL_MV_load" name="VL_MV_load" nominalV="110.0" topologyKind="NODE_BREAKER">
            <iidm:nodeBreakerTopology>
                <iidm:busbarSection id="VL_MV_load_1_1" node="0"/>
                <iidm:busbarSection id="VL_MV_load_2_1" node="1"/>
                <iidm:switch id="VL_MV_load_BREAKER" kind="BREAKER" retained="true" open="false" node1="2" node2="3"/>
                <iidm:switch id="VL_MV_load_DISCONNECTOR_2_0" kind="DISCONNECTOR" retained="false" open="false" node1="2" node2="0"/>
                <iidm:switch id="VL_MV_load_DISCONNECTOR_3_1" kind="DISCONNECTOR" retained="false" open="false" node1="3" node2="1"/>
                <iidm:switch id="L61_BREAKER" kind="BREAKER" retained="true" open="false" node1="4" node2="5"/>
                <iidm:switch id="L61_DISCONNECTOR_5_0" kind="DISCONNECTOR" retained="false" open="false" node1="5" node2="0"/>
                <iidm:switch id="L61_DISCONNECTOR_5_1" kind="DISCONNECTOR" retained="false" open="true" node1="5" node2="1"/>
                <iidm:switch id="L81_BREAKER" kind="BREAKER" retained="true" open="false" node1="6" node2="7"/>
                <iidm:switch id="L81_DISCONNECTOR_7_0" kind="DISCONNECTOR" retained="false" open="false" node1="7" node2="0"/>
                <iidm:switch id="L81_DISCONNECTOR_7_1" kind="DISCONNECTOR" retained="false" open="true" node1="7" node2="1"/>
                <iidm:switch id="L131_BREAKER" kind="BREAKER" retained="true" open="false" node1="8" node2="9"/>
                <iidm:switch id="L131_DISCONNECTOR_9_0" kind="DISCONNECTOR" retained="false" open="false" node1="9" node2="0"/>
                <iidm:switch id="L131_DISCONNECTOR_9_1" kind="DISCONNECTOR" retained="false" open="true" node1="9" node2="1"/>
                <iidm:switch id="load_MV_load_BREAKER" kind="BREAKER" retained="true" open="false" node1="10" node2="11"/>
                <iidm:switch id="load_MV_load_DISCONNECTOR_11_0" kind="DISCONNECTOR" retained="false" open="false" node1="11" node2="0"/>
                <iidm:switch id="load_MV_load_DISCONNECTOR_11_1" kind="DISCONNECTOR" retained="false" open="true" node1="11" node2="1"/>
                <iidm:bus angle="-5.520763675009356" nodes="0,1,2,3,4,5,6,7,8,9,10,11"/>
            </iidm:nodeBreakerTopology>
            <iidm:load id="load_MV_load" name="MV local load" loadType="UNDEFINED" p0="150.0" q0="60.0" node="10" p="150.0" q="60.0"/>
        </iidm:voltageLevel>
    </iidm:substation>
    <iidm:substation id="S_MV_svc" name="S_MV_svc" country="BE" tso="TSO">
        <iidm:voltageLevel id="VL_MV_svc" name="VL_MV_svc" nominalV="110.0" topologyKind="NODE_BREAKER">
            <iidm:nodeBreakerTopology>
                <iidm:busbarSection id="VL_MV_svc_1_1" node="0"/>
                <iidm:busbarSection id="VL_MV_svc_2_1" node="1"/>
                <iidm:switch id="VL_MV_svc_BREAKER" kind="BREAKER" retained="true" open="false" node1="2" node2="3"/>
                <iidm:switch id="VL_MV_svc_DISCONNECTOR_2_0" kind="DISCONNECTOR" retained="false" open="false" node1="2" node2="0"/>
                <iidm:switch id="VL_MV_svc_DISCONNECTOR_3_1" kind="DISCONNECTOR" retained="false" open="false" node1="3" node2="1"/>
                <iidm:switch id="L31_BREAKER" kind="BREAKER" retained="true" open="false" node1="4" node2="5"/>
                <iidm:switch id="L31_DISCONNECTOR_5_0" kind="DISCONNECTOR" retained="false" open="false" node1="5" node2="0"/>
                <iidm:switch id="L31_DISCONNECTOR_5_1" kind="DISCONNECTOR" retained="false" open="true" node1="5" node2="1"/>
                <iidm:switch id="L41_BREAKER" kind="BREAKER" retained="true" open="false" node1="6" node2="7"/>
                <iidm:switch id="L41_DISCONNECTOR_7_0" kind="DISCONNECTOR" retained="false" open="false" node1="7" node2="0"/>
                <iidm:switch id="L41_DISCONNECTOR_7_1" kind="DISCONNECTOR" retained="false" open="true" node1="7" node2="1"/>
                <iidm:switch id="L111_BREAKER" kind="BREAKER" retained="true" open="false" node1="8" node2="9"/>
                <iidm:switch id="L111_DISCONNECTOR_9_0" kind="DISCONNECTOR" retained="false" open="false" node1="9" node2="0"/>
                <iidm:switch id="L111_DISCONNECTOR_9_1" kind="DISCONNECTOR" retained="false" open="true" node1="9" node2="1"/>
                <iidm:switch id="L121_BREAKER" kind="BREAKER" retained="true" open="false" node1="10" node2="11"/>
                <iidm:switch id="L121_DISCONNECTOR_11_0" kind="DISCONNECTOR" retained="false" open="false" node1="11" node2="0"/>
                <iidm:switch id="L121_DISCONNECTOR_11_1" kind="DISCONNECTOR" retained="false" open="true" node1="11" node2="1"/>
                <iidm:switch id="GEN_MV_BREAKER" kind="BREAKER" retained="true" open="false" node1="12" node2="13"/>
                <iidm:switch id="GEN_MV_DISCONNECTOR_13_0" kind="DISCONNECTOR" retained="false" open="false" node1="13" node2="0"/>
                <iidm:switch id="GEN_MV_DISCONNECTOR_13_1" kind="DISCONNECTOR" retained="false" open="true" node1="13" node2="1"/>
                <iidm:switch id="load_VL_MV_svc_BREAKER" kind="BREAKER" retained="true" open="false" node1="14" node2="15"/>
                <iidm:switch id="load_VL_MV_svc_DISCONNECTOR_15_0" kind="DISCONNECTOR" retained="false" open="false" node1="15" node2="0"/>
                <iidm:switch id="load_VL_MV_svc_DISCONNECTOR_15_1" kind="DISCONNECTOR" retained="false" open="true" node1="15" node2="1"/>
                <iidm:switch id="SHUNT_MV_svc_BREAKER" kind="BREAKER" retained="true" open="false" node1="16" node2="17"/>
                <iidm:switch id="SHUNT_MV_svc_DISCONNECTOR_17_0" kind="DISCONNECTOR" retained="false" open="false" node1="17" node2="0"/>
                <iidm:switch id="SHUNT_MV_svc_DISCONNECTOR_17_1" kind="DISCONNECTOR" retained="false" open="true" node1="17" node2="1"/>
                <iidm:switch id="STATCOM_HV_BREAKER" kind="BREAKER" retained="true" open="false" node1="18" node2="19"/>
                <iidm:switch id="STATCOM_HV_DISCONNECTOR_19_0" kind="DISCONNECTOR" retained="false" open="false" node1="19" node2="0"/>
                <iidm:switch id="STATCOM_HV_DISCONNECTOR_19_1" kind="DISCONNECTOR" retained="false" open="true" node1="19" node2="1"/>
                <iidm:bus angle="-3.1895576666555234" nodes="0,1,2,3,4,5,6,7,8,9,10,11,12,13,14,15,16,17,18,19"/>
            </iidm:nodeBreakerTopology>
            <iidm:generator id="GEN_MV" name="MV local generator" energySource="THERMAL" minP="0.0" maxP="80.0" voltageRegulatorOn="true" targetP="30.0" targetV="110.0" node="12" p="-41.82854215836752" q="-0.0">
                <iidm:minMaxReactiveLimits minQ="-1.7976931348623157E308" maxQ="1.7976931348623157E308"/>
            </iidm:generator>
            <iidm:load id="load_VL_MV_svc" name="LV local load 2" loadType="UNDEFINED" p0="200.0" q0="200.0" node="14" p="200.0" q="200.0"/>
            <iidm:shunt id="SHUNT_MV_svc" sectionCount="1" solvedSectionCount="1" voltageRegulatorOn="false" targetV="110.0" targetDeadband="2.0" node="16" p="0.0">
                <iidm:shuntLinearModel bPerSection="0.002" gPerSection="0.0" maximumSectionCount="1"/>
            </iidm:shunt>
            <iidm:staticVarCompensator id="STATCOM_HV" name="HV STATCOM" bMin="-0.01" bMax="0.01" voltageSetpoint="110.0" regulationMode="VOLTAGE" regulating="true" node="18" p="0.0"/>
        </iidm:voltageLevel>
    </iidm:substation>
    <iidm:substation id="S_MV" name="S_MV" country="BE" tso="TSO">
        <iidm:voltageLevel id="VL_MV" name="VL_MV" nominalV="110.0" topologyKind="NODE_BREAKER">
            <iidm:nodeBreakerTopology>
                <iidm:busbarSection id="VL_MV_1_1" node="0"/>
                <iidm:busbarSection id="VL_MV_2_1" node="1"/>
                <iidm:busbarSection id="VL_MV_1_2" node="2"/>
                <iidm:busbarSection id="VL_MV_2_2" node="3"/>
                <iidm:switch id="VL_MV_DISCONNECTOR_0_4" kind="DISCONNECTOR" retained="false" open="false" node1="0" node2="4"/>
                <iidm:switch id="VL_MV_BREAKER_1_1" kind="BREAKER" retained="true" open="false" node1="4" node2="5"/>
                <iidm:switch id="VL_MV_DISCONNECTOR_5_2" kind="DISCONNECTOR" retained="false" open="false" node1="5" node2="2"/>
                <iidm:switch id="VL_MV_DISCONNECTOR_1_6" kind="DISCONNECTOR" retained="false" open="false" node1="1" node2="6"/>
                <iidm:switch id="VL_MV_BREAKER_2_1" kind="BREAKER" retained="true" open="false" node1="6" node2="7"/>
                <iidm:switch id="VL_MV_DISCONNECTOR_7_3" kind="DISCONNECTOR" retained="false" open="false" node1="7" node2="3"/>
                <iidm:switch id="VL_MV_BREAKER" kind="BREAKER" retained="true" open="false" node1="8" node2="9"/>
                <iidm:switch id="VL_MV_DISCONNECTOR_8_0" kind="DISCONNECTOR" retained="false" open="false" node1="8" node2="0"/>
                <iidm:switch id="VL_MV_DISCONNECTOR_9_1" kind="DISCONNECTOR" retained="false" open="false" node1="9" node2="1"/>
                <iidm:switch id="L62_BREAKER" kind="BREAKER" retained="true" open="false" node1="10" node2="11"/>
                <iidm:switch id="L62_DISCONNECTOR_11_0" kind="DISCONNECTOR" retained="false" open="false" node1="11" node2="0"/>
                <iidm:switch id="L62_DISCONNECTOR_11_1" kind="DISCONNECTOR" retained="false" open="true" node1="11" node2="1"/>
                <iidm:switch id="L72_BREAKER" kind="BREAKER" retained="true" open="false" node1="12" node2="13"/>
                <iidm:switch id="L72_DISCONNECTOR_13_0" kind="DISCONNECTOR" retained="false" open="false" node1="13" node2="0"/>
                <iidm:switch id="L72_DISCONNECTOR_13_1" kind="DISCONNECTOR" retained="false" open="true" node1="13" node2="1"/>
                <iidm:switch id="L91_BREAKER" kind="BREAKER" retained="true" open="false" node1="14" node2="15"/>
                <iidm:switch id="L91_DISCONNECTOR_15_0" kind="DISCONNECTOR" retained="false" open="false" node1="15" node2="0"/>
                <iidm:switch id="L91_DISCONNECTOR_15_1" kind="DISCONNECTOR" retained="false" open="true" node1="15" node2="1"/>
                <iidm:switch id="L101_BREAKER" kind="BREAKER" retained="true" open="false" node1="16" node2="17"/>
                <iidm:switch id="L101_DISCONNECTOR_17_0" kind="DISCONNECTOR" retained="false" open="false" node1="17" node2="0"/>
                <iidm:switch id="L101_DISCONNECTOR_17_1" kind="DISCONNECTOR" retained="false" open="true" node1="17" node2="1"/>
                <iidm:switch id="L122_BREAKER" kind="BREAKER" retained="true" open="false" node1="18" node2="19"/>
                <iidm:switch id="L122_DISCONNECTOR_19_0" kind="DISCONNECTOR" retained="false" open="false" node1="19" node2="0"/>
                <iidm:switch id="L122_DISCONNECTOR_19_1" kind="DISCONNECTOR" retained="false" open="true" node1="19" node2="1"/>
                <iidm:switch id="load_MV_BREAKER" kind="BREAKER" retained="true" open="false" node1="20" node2="21"/>
                <iidm:switch id="load_MV_DISCONNECTOR_21_0" kind="DISCONNECTOR" retained="false" open="false" node1="21" node2="0"/>
                <iidm:switch id="load_MV_DISCONNECTOR_21_1" kind="DISCONNECTOR" retained="false" open="true" node1="21" node2="1"/>
                <iidm:switch id="BAT_MV_BREAKER" kind="BREAKER" retained="true" open="false" node1="22" node2="23"/>
                <iidm:switch id="BAT_MV_DISCONNECTOR_23_0" kind="DISCONNECTOR" retained="false" open="false" node1="23" node2="0"/>
                <iidm:switch id="BAT_MV_DISCONNECTOR_23_1" kind="DISCONNECTOR" retained="false" open="true" node1="23" node2="1"/>
                <iidm:switch id="SHUNT_MV_BREAKER" kind="BREAKER" retained="true" open="false" node1="24" node2="25"/>
                <iidm:switch id="SHUNT_MV_DISCONNECTOR_25_0" kind="DISCONNECTOR" retained="false" open="false" node1="25" node2="0"/>
                <iidm:switch id="SHUNT_MV_DISCONNECTOR_25_1" kind="DISCONNECTOR" retained="false" open="true" node1="25" node2="1"/>
                <iidm:bus angle="-3.6599268016367357" nodes="0,1,2,3,4,5,6,7,8,9,10,11,12,13,14,15,16,17,18,19,20,21,22,23,24,25"/>
            </iidm:nodeBreakerTopology>
            <iidm:battery id="BAT_MV" name="MV battery" targetP="-20.0" targetQ="0.0" minP="-60.0" maxP="60.0" node="22" p="12.114305227754988" q="-0.0">
                <iidm:minMaxReactiveLimits minQ="-1.7976931348623157E308" maxQ="1.7976931348623157E308"/>
            </iidm:battery>
            <iidm:load id="load_MV" name="MV interconnection load" loadType="UNDEFINED" p0="80.0" q0="20.0" node="20" p="80.0" q="20.0"/>
            <iidm:shunt id="SHUNT_MV" sectionCount="1" solvedSectionCount="1" voltageRegulatorOn="false" targetV="110.0" targetDeadband="2.0" node="24" p="0.0">
                <iidm:shuntLinearModel bPerSection="0.0012" gPerSection="0.0" maximumSectionCount="1"/>
            </iidm:shunt>
        </iidm:voltageLevel>
    </iidm:substation>
    <iidm:substation id="S_2W_MV_HV" name="S_2W_MV_HV" country="BE" tso="TSO">
        <iidm:voltageLevel id="VL_2W_MV_HV_MV" name="VL_2W_MV_HV_MV" nominalV="110.0" topologyKind="NODE_BREAKER">
            <iidm:nodeBreakerTopology>
                <iidm:busbarSection id="VL_2W_MV_HV_MV_1_1" node="0"/>
                <iidm:busbarSection id="VL_2W_MV_HV_MV_2_1" node="1"/>
                <iidm:switch id="VL_2W_MV_HV_MV_BREAKER" kind="BREAKER" retained="true" open="false" node1="2" node2="3"/>
                <iidm:switch id="VL_2W_MV_HV_MV_DISCONNECTOR_2_0" kind="DISCONNECTOR" retained="false" open="false" node1="2" node2="0"/>
                <iidm:switch id="VL_2W_MV_HV_MV_DISCONNECTOR_3_1" kind="DISCONNECTOR" retained="false" open="false" node1="3" node2="1"/>
                <iidm:switch id="L42_BREAKER" kind="BREAKER" retained="true" open="false" node1="4" node2="5"/>
                <iidm:switch id="L42_DISCONNECTOR_5_0" kind="DISCONNECTOR" retained="false" open="false" node1="5" node2="0"/>
                <iidm:switch id="L42_DISCONNECTOR_5_1" kind="DISCONNECTOR" retained="false" open="true" node1="5" node2="1"/>
                <iidm:switch id="L71_BREAKER" kind="BREAKER" retained="true" open="false" node1="6" node2="7"/>
                <iidm:switch id="L71_DISCONNECTOR_7_0" kind="DISCONNECTOR" retained="false" open="false" node1="7" node2="0"/>
                <iidm:switch id="L71_DISCONNECTOR_7_1" kind="DISCONNECTOR" retained="false" open="true" node1="7" node2="1"/>
                <iidm:switch id="L132_BREAKER" kind="BREAKER" retained="true" open="false" node1="8" node2="9"/>
                <iidm:switch id="L132_DISCONNECTOR_9_0" kind="DISCONNECTOR" retained="false" open="false" node1="9" node2="0"/>
                <iidm:switch id="L132_DISCONNECTOR_9_1" kind="DISCONNECTOR" retained="false" open="true" node1="9" node2="1"/>
                <iidm:switch id="2W_MV_HV_12_BREAKER" kind="BREAKER" retained="true" open="false" node1="10" node2="11"/>
                <iidm:switch id="2W_MV_HV_12_DISCONNECTOR_11_0" kind="DISCONNECTOR" retained="false" open="false" node1="11" node2="0"/>
                <iidm:switch id="2W_MV_HV_12_DISCONNECTOR_11_1" kind="DISCONNECTOR" retained="false" open="true" node1="11" node2="1"/>
                <iidm:switch id="2W_MV_HV_22_BREAKER" kind="BREAKER" retained="true" open="false" node1="12" node2="13"/>
                <iidm:switch id="2W_MV_HV_22_DISCONNECTOR_13_0" kind="DISCONNECTOR" retained="false" open="true" node1="13" node2="0"/>
                <iidm:switch id="2W_MV_HV_22_DISCONNECTOR_13_1" kind="DISCONNECTOR" retained="false" open="false" node1="13" node2="1"/>
                <iidm:bus angle="-0.6273652959861282" nodes="0,1,2,3,4,5,6,7,8,9,10,11,12,13"/>
            </iidm:nodeBreakerTopology>
        </iidm:voltageLevel>
        <iidm:voltageLevel id="VL_2W_MV_HV_HV" name="VL_2W_MV_HV_HV" nominalV="380.0" topologyKind="NODE_BREAKER">
            <iidm:nodeBreakerTopology>
                <iidm:busbarSection id="VL_2W_MV_HV_HV_1_1" node="0"/>
                <iidm:busbarSection id="VL_2W_MV_HV_HV_2_1" node="1"/>
                <iidm:busbarSection id="VL_2W_MV_HV_HV_1_2" node="2"/>
                <iidm:busbarSection id="VL_2W_MV_HV_HV_2_2" node="3"/>
                <iidm:switch id="VL_2W_MV_HV_HV_DISCONNECTOR_0_4" kind="DISCONNECTOR" retained="false" open="false" node1="0" node2="4"/>
                <iidm:switch id="VL_2W_MV_HV_HV_BREAKER_1_1" kind="BREAKER" retained="true" open="false" node1="4" node2="5"/>
                <iidm:switch id="VL_2W_MV_HV_HV_DISCONNECTOR_5_2" kind="DISCONNECTOR" retained="false" open="false" node1="5" node2="2"/>
                <iidm:switch id="VL_2W_MV_HV_HV_DISCONNECTOR_1_6" kind="DISCONNECTOR" retained="false" open="false" node1="1" node2="6"/>
                <iidm:switch id="VL_2W_MV_HV_HV_BREAKER_2_1" kind="BREAKER" retained="true" open="false" node1="6" node2="7"/>
                <iidm:switch id="VL_2W_MV_HV_HV_DISCONNECTOR_7_3" kind="DISCONNECTOR" retained="false" open="false" node1="7" node2="3"/>
                <iidm:switch id="VL_2W_MV_HV_HV_BREAKER" kind="BREAKER" retained="true" open="false" node1="8" node2="9"/>
                <iidm:switch id="VL_2W_MV_HV_HV_DISCONNECTOR_8_0" kind="DISCONNECTOR" retained="false" open="false" node1="8" node2="0"/>
                <iidm:switch id="VL_2W_MV_HV_HV_DISCONNECTOR_9_1" kind="DISCONNECTOR" retained="false" open="false" node1="9" node2="1"/>
                <iidm:switch id="L161_BREAKER" kind="BREAKER" retained="true" open="false" node1="10" node2="11"/>
                <iidm:switch id="L161_DISCONNECTOR_11_0" kind="DISCONNECTOR" retained="false" open="false" node1="11" node2="0"/>
                <iidm:switch id="L161_DISCONNECTOR_11_1" kind="DISCONNECTOR" retained="false" open="true" node1="11" node2="1"/>
                <iidm:switch id="L171_BREAKER" kind="BREAKER" retained="true" open="false" node1="12" node2="13"/>
                <iidm:switch id="L171_DISCONNECTOR_13_0" kind="DISCONNECTOR" retained="false" open="true" node1="13" node2="0"/>
                <iidm:switch id="L171_DISCONNECTOR_13_1" kind="DISCONNECTOR" retained="false" open="false" node1="13" node2="1"/>
                <iidm:switch id="L201_BREAKER" kind="BREAKER" retained="true" open="false" node1="14" node2="15"/>
                <iidm:switch id="L201_DISCONNECTOR_15_0" kind="DISCONNECTOR" retained="false" open="false" node1="15" node2="0"/>
                <iidm:switch id="L201_DISCONNECTOR_15_1" kind="DISCONNECTOR" retained="false" open="true" node1="15" node2="1"/>
                <iidm:switch id="L211_BREAKER" kind="BREAKER" retained="true" open="false" node1="16" node2="17"/>
                <iidm:switch id="L211_DISCONNECTOR_17_0" kind="DISCONNECTOR" retained="false" open="true" node1="17" node2="0"/>
                <iidm:switch id="L211_DISCONNECTOR_17_1" kind="DISCONNECTOR" retained="false" open="false" node1="17" node2="1"/>
                <iidm:switch id="2W_MV_HV_11_BREAKER" kind="BREAKER" retained="true" open="false" node1="18" node2="19"/>
                <iidm:switch id="2W_MV_HV_11_DISCONNECTOR_19_0" kind="DISCONNECTOR" retained="false" open="false" node1="19" node2="0"/>
                <iidm:switch id="2W_MV_HV_11_DISCONNECTOR_19_1" kind="DISCONNECTOR" retained="false" open="true" node1="19" node2="1"/>
                <iidm:switch id="2W_MV_HV_21_BREAKER" kind="BREAKER" retained="true" open="false" node1="20" node2="21"/>
                <iidm:switch id="2W_MV_HV_21_DISCONNECTOR_21_0" kind="DISCONNECTOR" retained="false" open="true" node1="21" node2="0"/>
                <iidm:switch id="2W_MV_HV_21_DISCONNECTOR_21_1" kind="DISCONNECTOR" retained="false" open="false" node1="21" node2="1"/>
                <iidm:switch id="LCC2_BREAKER" kind="BREAKER" retained="true" open="false" node1="22" node2="23"/>
                <iidm:switch id="LCC2_DISCONNECTOR_23_0" kind="DISCONNECTOR" retained="false" open="false" node1="23" node2="0"/>
                <iidm:switch id="LCC2_DISCONNECTOR_23_1" kind="DISCONNECTOR" retained="false" open="true" node1="23" node2="1"/>
                <iidm:switch id="Dangling_inbound_BREAKER" kind="BREAKER" retained="true" open="false" node1="24" node2="25"/>
                <iidm:switch id="Dangling_inbound_DISCONNECTOR_25_0" kind="DISCONNECTOR" retained="false" open="false" node1="25" node2="0"/>
                <iidm:switch id="Dangling_inbound_DISCONNECTOR_25_1" kind="DISCONNECTOR" retained="false" open="true" node1="25" node2="1"/>
                <iidm:bus angle="-0.5472225205499281" nodes="0,1,2,3,4,5,6,7,8,9,10,11,12,13,14,15,16,17,18,19,20,21,22,23,24,25"/>
            </iidm:nodeBreakerTopology>
            <iidm:danglingLine id="Dangling_inbound" name="Dangling inbound" p0="-300.0" q0="-100.0" r="1.0" x="15.0" g="0.0" b="1.108E-6" node="24" p="-300.0">
                <iidm:property name="angle" value="1.238310774525352"/>
            </iidm:danglingLine>
            <iidm:lccConverterStation id="LCC2" name="LCC station B" lossFactor="1.0" powerFactor="0.98" node="22" p="-73.46970268784625" q="14.918652092698064"/>
        </iidm:voltageLevel>
        <iidm:twoWindingsTransformer id="2W_MV_HV_1" r="0.004" x="0.12" g="0.0" b="0.0" ratedU1="380.0" ratedU2="110.0" voltageLevelId1="VL_2W_MV_HV_HV" node1="18" voltageLevelId2="VL_2W_MV_HV_MV" node2="10" p1="141.0411597240194" p2="-141.0411597240194" selectedOperationalLimitsGroupId1="DEFAULT">
            <iidm:operationalLimitsGroup1 id="DEFAULT">
                <iidm:currentLimits permanentLimit="300.0"/>
            </iidm:operationalLimitsGroup1>
        </iidm:twoWindingsTransformer>
        <iidm:twoWindingsTransformer id="2W_MV_HV_2" r="0.004" x="0.12" g="0.0" b="0.0" ratedU1="380.0" ratedU2="110.0" voltageLevelId1="VL_2W_MV_HV_HV" node1="20" voltageLevelId2="VL_2W_MV_HV_MV" node2="12" p1="141.0411597240194" p2="-141.0411597240194" selectedOperationalLimitsGroupId1="DEFAULT">
            <iidm:operationalLimitsGroup1 id="DEFAULT">
                <iidm:currentLimits permanentLimit="300.0"/>
            </iidm:operationalLimitsGroup1>
        </iidm:twoWindingsTransformer>
    </iidm:substation>
    <iidm:substation id="S_HV_gen" name="S_2W_HV_gen" country="BE" tso="TSO">
        <iidm:voltageLevel id="VL_HV_gen" name="VL_HV_gen" nominalV="380.0" topologyKind="NODE_BREAKER">
            <iidm:nodeBreakerTopology>
                <iidm:busbarSection id="VL_HV_gen_1_1" node="0"/>
                <iidm:busbarSection id="VL_HV_gen_2_1" node="1"/>
                <iidm:switch id="VL_HV_gen_BREAKER" kind="BREAKER" retained="true" open="false" node1="2" node2="3"/>
                <iidm:switch id="VL_HV_gen_DISCONNECTOR_2_0" kind="DISCONNECTOR" retained="false" open="false" node1="2" node2="0"/>
                <iidm:switch id="VL_HV_gen_DISCONNECTOR_3_1" kind="DISCONNECTOR" retained="false" open="false" node1="3" node2="1"/>
                <iidm:switch id="L162_BREAKER" kind="BREAKER" retained="true" open="false" node1="4" node2="5"/>
                <iidm:switch id="L162_DISCONNECTOR_5_0" kind="DISCONNECTOR" retained="false" open="false" node1="5" node2="0"/>
                <iidm:switch id="L162_DISCONNECTOR_5_1" kind="DISCONNECTOR" retained="false" open="true" node1="5" node2="1"/>
                <iidm:switch id="L172_BREAKER" kind="BREAKER" retained="true" open="false" node1="6" node2="7"/>
                <iidm:switch id="L172_DISCONNECTOR_7_0" kind="DISCONNECTOR" retained="false" open="true" node1="7" node2="0"/>
                <iidm:switch id="L172_DISCONNECTOR_7_1" kind="DISCONNECTOR" retained="false" open="false" node1="7" node2="1"/>
                <iidm:switch id="L182_BREAKER" kind="BREAKER" retained="true" open="false" node1="8" node2="9"/>
                <iidm:switch id="L182_DISCONNECTOR_9_0" kind="DISCONNECTOR" retained="false" open="false" node1="9" node2="0"/>
                <iidm:switch id="L182_DISCONNECTOR_9_1" kind="DISCONNECTOR" retained="false" open="true" node1="9" node2="1"/>
                <iidm:switch id="L192_BREAKER" kind="BREAKER" retained="true" open="false" node1="10" node2="11"/>
                <iidm:switch id="L192_DISCONNECTOR_11_0" kind="DISCONNECTOR" retained="false" open="true" node1="11" node2="0"/>
                <iidm:switch id="L192_DISCONNECTOR_11_1" kind="DISCONNECTOR" retained="false" open="false" node1="11" node2="1"/>
                <iidm:switch id="VSC_B_BREAKER" kind="BREAKER" retained="true" open="false" node1="12" node2="13"/>
                <iidm:switch id="VSC_B_DISCONNECTOR_13_0" kind="DISCONNECTOR" retained="false" open="true" node1="13" node2="0"/>
                <iidm:switch id="VSC_B_DISCONNECTOR_13_1" kind="DISCONNECTOR" retained="false" open="false" node1="13" node2="1"/>
                <iidm:switch id="GEN_HV_BREAKER" kind="BREAKER" retained="true" open="false" node1="14" node2="15"/>
                <iidm:switch id="GEN_HV_DISCONNECTOR_15_0" kind="DISCONNECTOR" retained="false" open="false" node1="15" node2="0"/>
                <iidm:switch id="GEN_HV_DISCONNECTOR_15_1" kind="DISCONNECTOR" retained="false" open="true" node1="15" node2="1"/>
                <iidm:switch id="load_HV_gen_BREAKER" kind="BREAKER" retained="true" open="false" node1="16" node2="17"/>
                <iidm:switch id="load_HV_gen_DISCONNECTOR_17_0" kind="DISCONNECTOR" retained="false" open="true" node1="17" node2="0"/>
                <iidm:switch id="load_HV_gen_DISCONNECTOR_17_1" kind="DISCONNECTOR" retained="false" open="false" node1="17" node2="1"/>
                <iidm:switch id="SHUNT_HV_CAP_BREAKER" kind="BREAKER" retained="true" open="false" node1="18" node2="19"/>
                <iidm:switch id="SHUNT_HV_CAP_DISCONNECTOR_19_0" kind="DISCONNECTOR" retained="false" open="false" node1="19" node2="0"/>
                <iidm:switch id="SHUNT_HV_CAP_DISCONNECTOR_19_1" kind="DISCONNECTOR" retained="false" open="true" node1="19" node2="1"/>
                <iidm:bus angle="0.0" nodes="0,1,2,3,4,5,6,7,8,9,10,11,12,13,14,15,16,17,18,19"/>
            </iidm:nodeBreakerTopology>
            <iidm:generator id="GEN_HV" name="HV main generator" energySource="THERMAL" minP="0.0" maxP="1200.0" voltageRegulatorOn="true" targetP="700.0" targetV="380.0" node="14" p="-975.9993170285753" q="-0.0">
                <iidm:minMaxReactiveLimits minQ="-1.7976931348623157E308" maxQ="1.7976931348623157E308"/>
            </iidm:generator>
            <iidm:load id="load_HV_gen" name="HV interconnection load" loadType="UNDEFINED" p0="120.0" q0="40.0" node="16" p="120.0" q="40.0"/>
            <iidm:shunt id="SHUNT_HV_CAP" sectionCount="1" solvedSectionCount="1" voltageRegulatorOn="false" targetV="380.0" targetDeadband="2.0" node="18" p="0.0">
                <iidm:shuntLinearModel bPerSection="0.002" gPerSection="0.0" maximumSectionCount="1"/>
            </iidm:shunt>
            <iidm:vscConverterStation id="VSC_B" name="VSC B (HV-gen)" voltageRegulatorOn="true" lossFactor="1.0" voltageSetpoint="380.0" reactivePowerSetpoint="0.0" node="12" p="-48.98820119459834" q="-0.0">
                <iidm:minMaxReactiveLimits minQ="-1.7976931348623157E308" maxQ="1.7976931348623157E308"/>
            </iidm:vscConverterStation>
        </iidm:voltageLevel>
    </iidm:substation>
    <iidm:substation id="S_HV_vsc" name="S_HV_vsc" country="BE" tso="TSO">
        <iidm:voltageLevel id="VL_HV_vsc" name="VL_HV_vsc" nominalV="380.0" topologyKind="NODE_BREAKER">
            <iidm:nodeBreakerTopology>
                <iidm:busbarSection id="VL_HV_vsc_1_1" node="0"/>
                <iidm:busbarSection id="VL_HV_vsc_2_1" node="1"/>
                <iidm:busbarSection id="VL_HV_vsc_1_2" node="2"/>
                <iidm:busbarSection id="VL_HV_vsc_2_2" node="3"/>
                <iidm:switch id="VL_HV_vsc_DISCONNECTOR_0_4" kind="DISCONNECTOR" retained="false" open="false" node1="0" node2="4"/>
                <iidm:switch id="VL_HV_vsc_BREAKER_1_1" kind="BREAKER" retained="true" open="false" node1="4" node2="5"/>
                <iidm:switch id="VL_HV_vsc_DISCONNECTOR_5_2" kind="DISCONNECTOR" retained="false" open="false" node1="5" node2="2"/>
                <iidm:switch id="VL_HV_vsc_DISCONNECTOR_1_6" kind="DISCONNECTOR" retained="false" open="false" node1="1" node2="6"/>
                <iidm:switch id="VL_HV_vsc_BREAKER_2_1" kind="BREAKER" retained="true" open="false" node1="6" node2="7"/>
                <iidm:switch id="VL_HV_vsc_DISCONNECTOR_7_3" kind="DISCONNECTOR" retained="false" open="false" node1="7" node2="3"/>
                <iidm:switch id="VL_HV_vsc_BREAKER" kind="BREAKER" retained="true" open="false" node1="8" node2="9"/>
                <iidm:switch id="VL_HV_vsc_DISCONNECTOR_8_0" kind="DISCONNECTOR" retained="false" open="false" node1="8" node2="0"/>
                <iidm:switch id="VL_HV_vsc_DISCONNECTOR_9_1" kind="DISCONNECTOR" retained="false" open="false" node1="9" node2="1"/>
                <iidm:switch id="L142_BREAKER" kind="BREAKER" retained="true" open="false" node1="10" node2="11"/>
                <iidm:switch id="L142_DISCONNECTOR_11_0" kind="DISCONNECTOR" retained="false" open="false" node1="11" node2="0"/>
                <iidm:switch id="L142_DISCONNECTOR_11_1" kind="DISCONNECTOR" retained="false" open="true" node1="11" node2="1"/>
                <iidm:switch id="L152_BREAKER" kind="BREAKER" retained="true" open="false" node1="12" node2="13"/>
                <iidm:switch id="L152_DISCONNECTOR_13_0" kind="DISCONNECTOR" retained="false" open="true" node1="13" node2="0"/>
                <iidm:switch id="L152_DISCONNECTOR_13_1" kind="DISCONNECTOR" retained="false" open="false" node1="13" node2="1"/>
                <iidm:switch id="L202_BREAKER" kind="BREAKER" retained="true" open="false" node1="14" node2="15"/>
                <iidm:switch id="L202_DISCONNECTOR_15_0" kind="DISCONNECTOR" retained="false" open="false" node1="15" node2="0"/>
                <iidm:switch id="L202_DISCONNECTOR_15_1" kind="DISCONNECTOR" retained="false" open="true" node1="15" node2="1"/>
                <iidm:switch id="L212_BREAKER" kind="BREAKER" retained="true" open="false" node1="16" node2="17"/>
                <iidm:switch id="L212_DISCONNECTOR_17_0" kind="DISCONNECTOR" retained="false" open="true" node1="17" node2="0"/>
                <iidm:switch id="L212_DISCONNECTOR_17_1" kind="DISCONNECTOR" retained="false" open="false" node1="17" node2="1"/>
                <iidm:switch id="VSC_A_BREAKER" kind="BREAKER" retained="true" open="false" node1="18" node2="19"/>
                <iidm:switch id="VSC_A_DISCONNECTOR_19_0" kind="DISCONNECTOR" retained="false" open="false" node1="19" node2="0"/>
                <iidm:switch id="VSC_A_DISCONNECTOR_19_1" kind="DISCONNECTOR" retained="false" open="true" node1="19" node2="1"/>
                <iidm:switch id="load_HV_vsc_BREAKER" kind="BREAKER" retained="true" open="false" node1="20" node2="21"/>
                <iidm:switch id="load_HV_vsc_DISCONNECTOR_21_0" kind="DISCONNECTOR" retained="false" open="false" node1="21" node2="0"/>
                <iidm:switch id="load_HV_vsc_DISCONNECTOR_21_1" kind="DISCONNECTOR" retained="false" open="true" node1="21" node2="1"/>
                <iidm:bus angle="-1.7519468731190198" nodes="0,1,2,3,4,5,6,7,8,9,10,11,12,13,14,15,16,17,18,19,20,21"/>
            </iidm:nodeBreakerTopology>
            <iidm:load id="load_HV_vsc" name="HV local load" loadType="UNDEFINED" p0="350.0" q0="120.0" node="20" p="350.0" q="120.0"/>
            <iidm:vscConverterStation id="VSC_A" name="VSC A (3W-HV)" voltageRegulatorOn="true" lossFactor="1.0" voltageSetpoint="380.0" reactivePowerSetpoint="0.0" node="18" p="50.0" q="-0.0">
                <iidm:minMaxReactiveLimits minQ="-1.7976931348623157E308" maxQ="1.7976931348623157E308"/>
            </iidm:vscConverterStation>
        </iidm:voltageLevel>
    </iidm:substation>
    <iidm:substation id="S_DE_1" name="S_DE_1" country="DE" tso="TSO">
        <iidm:voltageLevel id="VL_DE_1" name="VL_DE_1" nominalV="380.0" topologyKind="NODE_BREAKER">
            <iidm:nodeBreakerTopology>
                <iidm:busbarSection id="VL_DE_1_1_1" node="0"/>
            </iidm:nodeBreakerTopology>
        </iidm:voltageLevel>
    </iidm:substation>
    <iidm:substation id="S_DE_2" name="S_DE_2" country="DE" tso="TSO">
        <iidm:voltageLevel id="VL_DE_2" name="VL_DE_2" nominalV="380.0" topologyKind="NODE_BREAKER">
            <iidm:nodeBreakerTopology>
                <iidm:busbarSection id="VL_DE_2_1_1" node="0"/>
            </iidm:nodeBreakerTopology>
        </iidm:voltageLevel>
    </iidm:substation>
    <iidm:line id="L1" r="3.5" x="9.0" g1="0.0" b1="7.5586E-6" g2="0.0" b2="7.5586E-6" voltageLevelId1="VL_3W_LV" node1="4" voltageLevelId2="VL_LV_load" node2="1" p1="34.87306662378556" p2="-34.87306662378556" selectedOperationalLimitsGroupId1="DEFAULT">
        <iidm:operationalLimitsGroup1 id="DEFAULT">
            <iidm:currentLimits permanentLimit="400.0"/>
        </iidm:operationalLimitsGroup1>
    </iidm:line>
    <iidm:line id="L2" r="5.0" x="15.0" g1="0.0" b1="2.5195E-5" g2="0.0" b2="2.5195E-5" voltageLevelId1="VL_2W_MV_LV_LV" node1="4" voltageLevelId2="VL_LV_load" node2="3" p1="13.29839121784693" p2="-13.29839121784693" selectedOperationalLimitsGroupId1="DEFAULT">
        <iidm:operationalLimitsGroup1 id="DEFAULT">
            <iidm:currentLimits permanentLimit="200.0"/>
        </iidm:operationalLimitsGroup1>
    </iidm:line>
    <iidm:line id="L3" r="1.8" x="5.1" g1="0.0" b1="3.3058E-6" g2="0.0" b2="3.3058E-6" voltageLevelId1="VL_MV_svc" node1="4" voltageLevelId2="VL_3W_MV" node2="4" p1="-58.400478686641875" p2="58.400478686641875" selectedOperationalLimitsGroupId1="DEFAULT">
        <iidm:operationalLimitsGroup1 id="DEFAULT">
            <iidm:currentLimits permanentLimit="400.0"/>
        </iidm:operationalLimitsGroup1>
    </iidm:line>
    <iidm:line id="L4" r="1.8" x="5.1" g1="0.0" b1="3.3058E-6" g2="0.0" b2="3.3058E-6" voltageLevelId1="VL_MV_svc" node1="6" voltageLevelId2="VL_2W_MV_HV_MV" node2="4" p1="-106.09729108738924" p2="106.09729108738924" selectedOperationalLimitsGroupId1="DEFAULT">
        <iidm:operationalLimitsGroup1 id="DEFAULT">
            <iidm:currentLimits permanentLimit="600.0"/>
        </iidm:operationalLimitsGroup1>
    </iidm:line>
    <iidm:line id="L5" r="1.8" x="5.1" g1="0.0" b1="3.3058E-6" g2="0.0" b2="3.3058E-6" voltageLevelId1="VL_2W_MV_LV_MV" node1="4" voltageLevelId2="VL_3W_MV" node2="6" p1="-64.35235404771979" p2="64.35235404771979" selectedOperationalLimitsGroupId1="DEFAULT">
        <iidm:operationalLimitsGroup1 id="DEFAULT">
            <iidm:currentLimits permanentLimit="400.0"/>
        </iidm:operationalLimitsGroup1>
    </iidm:line>
    <iidm:line id="L6" r="1.8" x="5.1" g1="0.0" b1="3.3058E-6" g2="0.0" b2="3.3058E-6" voltageLevelId1="VL_MV_load" node1="4" voltageLevelId2="VL_MV" node2="10" p1="-77.05500714170884" p2="77.05500714170884" selectedOperationalLimitsGroupId1="DEFAULT">
        <iidm:operationalLimitsGroup1 id="DEFAULT">
            <iidm:currentLimits permanentLimit="500.0"/>
        </iidm:operationalLimitsGroup1>
    </iidm:line>
    <iidm:line id="L7" r="1.8" x="5.1" g1="0.0" b1="3.3058E-6" g2="0.0" b2="3.3058E-6" voltageLevelId1="VL_2W_MV_HV_MV" node1="6" voltageLevelId2="VL_MV" node2="12" p1="125.57470878791386" p2="-125.57470878791386" selectedOperationalLimitsGroupId1="DEFAULT">
        <iidm:operationalLimitsGroup1 id="DEFAULT">
            <iidm:currentLimits permanentLimit="700.0"/>
        </iidm:operationalLimitsGroup1>
    </iidm:line>
    <iidm:line id="L8" r="4.8" x="20.5" g1="0.0" b1="9.9174E-6" g2="0.0" b2="9.9174E-6" voltageLevelId1="VL_MV_load" node1="6" voltageLevelId2="VL_2W_MV_LV_MV" node2="6" p1="-22.53467328555577" p2="22.53467328555577" selectedOperationalLimitsGroupId1="DEFAULT">
        <iidm:operationalLimitsGroup1 id="DEFAULT">
            <iidm:currentLimits permanentLimit="200.0"/>
        </iidm:operationalLimitsGroup1>
    </iidm:line>
    <iidm:line id="L9" r="4.8" x="20.5" g1="0.0" b1="9.9174E-6" g2="0.0" b2="9.9174E-6" voltageLevelId1="VL_MV" node1="14" voltageLevelId2="VL_3W_MV" node2="8" p1="-19.374501052417028" p2="19.374501052417028" selectedOperationalLimitsGroupId1="DEFAULT">
        <iidm:operationalLimitsGroup1 id="DEFAULT">
            <iidm:currentLimits permanentLimit="200.0"/>
        </iidm:operationalLimitsGroup1>
    </iidm:line>
    <iidm:line id="L10" r="4.8" x="20.5" g1="0.0" b1="9.9174E-6" g2="0.0" b2="9.9174E-6" voltageLevelId1="VL_MV" node1="16" voltageLevelId2="VL_3W_MV" node2="10" p1="-19.374501052417028" p2="19.374501052417028" selectedOperationalLimitsGroupId1="DEFAULT">
        <iidm:operationalLimitsGroup1 id="DEFAULT">
            <iidm:currentLimits permanentLimit="200.0"/>
        </iidm:operationalLimitsGroup1>
    </iidm:line>
    <iidm:line id="L11" r="4.8" x="20.5" g1="0.0" b1="9.9174E-6" g2="0.0" b2="9.9174E-6" voltageLevelId1="VL_MV_svc" node1="8" voltageLevelId2="VL_2W_MV_LV_MV" node2="8" p1="1.4807104556827968" p2="-1.4807104556827968" selectedOperationalLimitsGroupId1="DEFAULT">
        <iidm:operationalLimitsGroup1 id="DEFAULT">
            <iidm:currentLimits permanentLimit="100.0"/>
        </iidm:operationalLimitsGroup1>
    </iidm:line>
    <iidm:line id="L12" r="4.8" x="20.5" g1="0.0" b1="9.9174E-6" g2="0.0" b2="9.9174E-6" voltageLevelId1="VL_MV_svc" node1="10" voltageLevelId2="VL_MV" node2="18" p1="4.8456014767158795" p2="-4.8456014767158795" selectedOperationalLimitsGroupId1="DEFAULT">
        <iidm:operationalLimitsGroup1 id="DEFAULT">
            <iidm:currentLimits permanentLimit="100.0"/>
        </iidm:operationalLimitsGroup1>
    </iidm:line>
    <iidm:line id="L13" r="4.8" x="20.5" g1="0.0" b1="9.9174E-6" g2="0.0" b2="9.9174E-6" voltageLevelId1="VL_MV_load" node1="8" voltageLevelId2="VL_2W_MV_HV_MV" node2="8" p1="-50.410319572735396" p2="50.410319572735396" selectedOperationalLimitsGroupId1="DEFAULT">
        <iidm:operationalLimitsGroup1 id="DEFAULT">
            <iidm:currentLimits permanentLimit="300.0"/>
        </iidm:operationalLimitsGroup1>
    </iidm:line>
    <iidm:line id="L14" r="0.8" x="8.8" g1="0.0" b1="3.4626E-7" g2="0.0" b2="3.4626E-7" voltageLevelId1="VL_3W_HV" node1="10" voltageLevelId2="VL_HV_vsc" node2="10" p1="-2.4142068745291043" p2="2.4142068745291043" selectedOperationalLimitsGroupId1="DEFAULT">
        <iidm:operationalLimitsGroup1 id="DEFAULT">
            <iidm:currentLimits permanentLimit="200.0"/>
        </iidm:operationalLimitsGroup1>
    </iidm:line>
    <iidm:line id="L15" r="0.8" x="8.8" g1="0.0" b1="3.4626E-7" g2="0.0" b2="3.4626E-7" voltageLevelId1="VL_3W_HV" node1="12" voltageLevelId2="VL_HV_vsc" node2="12" p1="-2.4142068745291043" p2="2.4142068745291043" selectedOperationalLimitsGroupId1="DEFAULT">
        <iidm:operationalLimitsGroup1 id="DEFAULT">
            <iidm:currentLimits permanentLimit="200.0"/>
        </iidm:operationalLimitsGroup1>
    </iidm:line>
    <iidm:line id="L16" r="0.8" x="8.8" g1="0.0" b1="3.4626E-7" g2="0.0" b2="3.4626E-7" voltageLevelId1="VL_2W_MV_HV_HV" node1="10" voltageLevelId2="VL_HV_gen" node2="4" p1="-156.72051525462484" p2="156.72051525462484" selectedOperationalLimitsGroupId1="DEFAULT">
        <iidm:operationalLimitsGroup1 id="DEFAULT">
            <iidm:currentLimits permanentLimit="300.0"/>
        </iidm:operationalLimitsGroup1>
    </iidm:line>
    <iidm:line id="L17" r="0.8" x="8.8" g1="0.0" b1="3.4626E-7" g2="0.0" b2="3.4626E-7" voltageLevelId1="VL_2W_MV_HV_HV" node1="12" voltageLevelId2="VL_HV_gen" node2="6" p1="-156.72051525462484" p2="156.72051525462484" selectedOperationalLimitsGroupId1="DEFAULT">
        <iidm:operationalLimitsGroup1 id="DEFAULT">
            <iidm:currentLimits permanentLimit="300.0"/>
        </iidm:operationalLimitsGroup1>
    </iidm:line>
    <iidm:line id="L18" r="1.0" x="15.0" g1="0.0" b1="1.108E-6" g2="0.0" b2="1.108E-6" voltageLevelId1="VL_3W_HV" node1="14" voltageLevelId2="VL_HV_gen" node2="8" p1="-295.77324385696613" p2="295.77324385696613" selectedOperationalLimitsGroupId1="DEFAULT">
        <iidm:operationalLimitsGroup1 id="DEFAULT">
            <iidm:currentLimits permanentLimit="500.0"/>
        </iidm:operationalLimitsGroup1>
    </iidm:line>
    <iidm:line id="L19" r="1.0" x="15.0" g1="0.0" b1="1.108E-6" g2="0.0" b2="1.108E-6" voltageLevelId1="VL_3W_HV" node1="16" voltageLevelId2="VL_HV_gen" node2="10" p1="-295.77324385696613" p2="295.77324385696613" selectedOperationalLimitsGroupId1="DEFAULT">
        <iidm:operationalLimitsGroup1 id="DEFAULT">
            <iidm:currentLimits permanentLimit="500.0"/>
        </iidm:operationalLimitsGroup1>
    </iidm:line>
    <iidm:line id="L20" r="1.0" x="15.0" g1="0.0" b1="1.108E-6" g2="0.0" b2="1.108E-6" voltageLevelId1="VL_2W_MV_HV_HV" node1="14" voltageLevelId2="VL_HV_vsc" node2="14" p1="202.41420687452916" p2="-202.41420687452916" selectedOperationalLimitsGroupId1="DEFAULT">
        <iidm:operationalLimitsGroup1 id="DEFAULT">
            <iidm:currentLimits permanentLimit="400.0"/>
        </iidm:operationalLimitsGroup1>
    </iidm:line>
    <iidm:line id="L21" r="1.0" x="15.0" g1="0.0" b1="1.108E-6" g2="0.0" b2="1.108E-6" voltageLevelId1="VL_2W_MV_HV_HV" node1="16" voltageLevelId2="VL_HV_vsc" node2="16" p1="202.41420687452916" p2="-202.41420687452916" selectedOperationalLimitsGroupId1="DEFAULT">
        <iidm:operationalLimitsGroup1 id="DEFAULT">
            <iidm:currentLimits permanentLimit="400.0"/>
        </iidm:operationalLimitsGroup1>
    </iidm:line>
...